23688915
  -OEChem-07072607512D

  8  6  0     0  0  0  0  0  0999 V2000
    2.9972    0.0054    0.0000 P   0  5  0  0  0  0  0  0  0  0  0  0
    3.8632    0.5054    0.0000 F   0  0  0  0  0  0  0  0  0  0  0  0
    2.0000   -0.0693    0.0000 F   0  0  0  0  0  0  0  0  0  0  0  0
    2.9724   -0.9943    0.0000 F   0  0  0  0  0  0  0  0  0  0  0  0
    3.1462    0.9943    0.0000 F   0  0  0  0  0  0  0  0  0  0  0  0
    3.5605   -0.8208    0.0000 F   0  0  0  0  0  0  0  0  0  0  0  0
    2.1710    0.5687    0.0000 F   0  0  0  0  0  0  0  0  0  0  0  0
    2.2990   -0.7104    0.0000 Li  0  3  0  0  0  0  0  0  0  0  0  0
  1  2  1  0  0  0  0
  1  3  1  0  0  0  0
  1  4  1  0  0  0  0
  1  5  1  0  0  0  0
  1  6  1  0  0  0  0
  1  7  1  0  0  0  0
M  CHG  2   1  -1   8   1
M  END
> <PUBCHEM_COMPOUND_CID>
23688915

> <PUBCHEM_COMPOUND_CANONICALIZED>
1

> <PUBCHEM_CACTVS_COMPLEXITY>
67.1

> <PUBCHEM_CACTVS_HBOND_ACCEPTOR>
7

> <PUBCHEM_CACTVS_HBOND_DONOR>
0

> <PUBCHEM_CACTVS_ROTATABLE_BOND>
0

> <PUBCHEM_CACTVS_SUBSKEYS>
AAADcQgAAcIAAAAAAAAAAAAAAAAAAAAAAAAAAAAAAAAAAAAAAAAAAAAAAAgAAAAAAAAAAAAAAAAAAAAAAAAAAAAAAAAAAAAAAAAAAAAAAAAAAAAAAAAAAAAAAAAAAAAAAAAAAAAAAAAAAAAAAAAAAAAAAA==

> <PUBCHEM_IUPAC_OPENEYE_NAME>
lithium hexafluorophosphate

> <PUBCHEM_IUPAC_CAS_NAME>
lithium hexafluorophosphate

> <PUBCHEM_IUPAC_NAME_MARKUP>
lithium hexafluorophosphate

> <PUBCHEM_IUPAC_NAME>
lithium hexafluorophosphate

> <PUBCHEM_IUPAC_SYSTEMATIC_NAME>
lithium hexafluorophosphate

> <PUBCHEM_IUPAC_TRADITIONAL_NAME>
lithium hexafluorophosphate

> <PUBCHEM_IUPAC_INCHI>
InChI=1S/F6P.Li/c1-7(2,3,4,5)6;/q-1;+1

> <PUBCHEM_IUPAC_INCHIKEY>
AXPLOJNSKRXQPA-UHFFFAOYSA-N

> <PUBCHEM_EXACT_MASS>
151.98018440

> <PUBCHEM_MOLECULAR_FORMULA>
F6LiP

> <PUBCHEM_MOLECULAR_WEIGHT>
151.9

> <PUBCHEM_SMILES>
[Li+].F[P-](F)(F)(F)(F)F

> <PUBCHEM_CONNECTIVITY_SMILES>
[Li+].F[P-](F)(F)(F)(F)F

> <PUBCHEM_CACTVS_TPSA>
0

> <PUBCHEM_MONOISOTOPIC_WEIGHT>
151.98018440

> <PUBCHEM_TOTAL_CHARGE>
0

> <PUBCHEM_HEAVY_ATOM_COUNT>
8

> <PUBCHEM_ATOM_DEF_STEREO_COUNT>
0

> <PUBCHEM_ATOM_UDEF_STEREO_COUNT>
0

> <PUBCHEM_BOND_DEF_STEREO_COUNT>
0

> <PUBCHEM_BOND_UDEF_STEREO_COUNT>
0

> <PUBCHEM_ISOTOPIC_ATOM_COUNT>
0

> <PUBCHEM_COMPONENT_COUNT>
2

> <PUBCHEM_CACTVS_TAUTO_COUNT>
-1

> <PUBCHEM_NONSTANDARDBOND>
1  8  7

> <PUBCHEM_COORDINATE_TYPE>
1
5
255

$$$$
